Version 4
SHEET 1 880 680
WIRE 144 96 96 96
WIRE 288 96 224 96
WIRE 96 128 96 96
WIRE 288 144 288 96
FLAG 96 208 0
FLAG 288 208 0
SYMBOL voltage 96 112 R0
WINDOW 0 -66 30 Left 2
WINDOW 3 -208 80 Left 2
WINDOW 123 0 0 Left 0
WINDOW 39 0 0 Left 0
SYMATTR InstName V_in
SYMATTR Value AC 1
SYMBOL cap 272 144 R0
SYMATTR InstName C6
SYMATTR Value 220nF
SYMBOL res 240 80 R90
WINDOW 0 0 56 VBottom 2
WINDOW 3 32 56 VTop 2
SYMATTR InstName R9
SYMATTR Value 72.34k
TEXT -114 232 Left 2 !;.tran 100E-3
TEXT -116 252 Left 2 !.ac dec 100 1 1000
