* Model file for ADL1107 (PMOS) and ADL1106 (NMOS)

.model NMOS NMOS (LEVEL=1 
+CBD=0.01p CBS=0.01p CGDO=0.01p 
+CGSO=0.01p GAMMA=.7 KP=136u 
+TOX=0.9E-9 LAMBDA=0.02 PHI=.9 VTO=0.6 
+L=10E-6 W=50E-6) 


.model PMOS PMOS (LEVEL=1 
+CBD=0.01p CBS=0.01p CGDO=0.01p 
+CGSO=0.01p GAMMA=.45 TOX=0.9E-9 
+KP=100u LAMBDA=0.03 PHI=.8 VTO=-0.6 
+L=10E-6 W=20E-6) 